/*--------------------------------*- C++ -*----------------------------------*\
| =========                 |                                                |
| \\      /  F ield         |                                                |
|  \\    /   O peration     |                                                |
|   \\  /    A nd           |                                                |
|    \\/     M anipulation  |                                                |
\*---------------------------------------------------------------------------*/

FoamFile
{
    version   2.0;
    format    ascii;
    class     dictionary;
    location  "system";
    object    meshDict;
}

// ************************************************************************* //

applicationClass    ;

startFrom           latestTime;

startTime           0;

stopAt              endTime;

endTime             500;

deltaT              1;

writeControl        timeStep;

writeInterval       100;

cycleWrite          0;

writeFormat         ascii;

writeCompression    uncompressed;

timeFormat          general;

timePrecision       6;

runTimeModifiable   yes;

nCorrectors         2;

nNonOrthogonalCorrectors 0;

functions
{
    processor
    {
        libs ("libutilityFunctionObjects.so");
        type  coded;
        name  processor;

        codeInclude
        #{
            #include "topoSet.H"
        #};

        codeEnd
        #{
            Info << "coded Function Start" << endl;

            volScalarField& dist = const_cast<volScalarField&>
            (mesh().lookupObject<volScalarField>("cellDist"));

            const word setType = "cellSet";
            PtrList<topoSet> sets(2);
            word regionName;

            regionName = "region0";
            sets.set
            (
                0,
                topoSet::New
                (
                    setType,
                    mesh(),
                    regionName,
                    IOobject::MUST_READ,
                    IOobject::NO_WRITE
                ).ptr()
            );

            Info << regionName << " have " << sets[0].size() << " cells" << endl;

            regionName = "region1";
            sets.set
            (
                1,
                topoSet::New
                (
                    setType,
                    mesh(),
                    regionName,
                    IOobject::MUST_READ,
                    IOobject::NO_WRITE
                ).ptr()
            );

            Info << regionName << " have " << sets[1].size() << " cells" << endl;


            forAllConstIter(labelHashSet, sets[0], iter)
            {
                const label& i = iter.key();

                const vector& C = mesh().C()[i];
                const scalar& x = C[0];
                const scalar& y = C[1];
                const scalar& z = C[2];

                scalar& d = dist[i];

                const scalar sqrR = Foam::sqr(x) + Foam::sqr(y);

                if(sqrR>Foam::sqr(0.4)) d=0;
                else d=1;

                if(z>-0.3) d=2;

                if(z<-1.7) d=3;
            }

            forAllConstIter(labelHashSet, sets[1], iter)
            {
                const label& i = iter.key();

                const vector& C = mesh().C()[i];
                const scalar& x = C[0];
                const scalar& y = C[1];
                const scalar& z = C[2];

                scalar& d = dist[i];

                const scalar sqrR = Foam::sqr(x) + Foam::sqr(y);

                if(sqrR>Foam::sqr(0.4)) d=4;
                else d=5;

                if(z<0.3) d=6;

                if(z>1.7) d=7;
            }
        #};
    }
}

// ************************************************************************* //
