/*--------------------------------*- C++ -*----------------------------------*\
| =========                 |                                                 |
| \\      /  F ield         | OpenFOAM: The Open Source CFD Toolbox           |
|  \\    /   O peration     | Version:  3.0.1                                 |
|   \\  /    A nd           | Web:      www.OpenFOAM.org                      |
|    \\/     M anipulation  |                                                 |
\*---------------------------------------------------------------------------*/
FoamFile
{
    version     2.0;
    format      ascii;
    class       volScalarField;
    location    "0/second";
    object      cellToRegion;
}
// * * * * * * * * * * * * * * * * * * * * * * * * * * * * * * * * * * * * * //

dimensions      [0 0 0 0 0 0 0];

internalField   uniform 1;

boundaryField
{
    minXsecond
    {
        type            empty;
    }
    maxXsecond
    {
        type            empty;
    }
    minZsecond
    {
        type            zeroGradient;
    }
    maxZsecond
    {
        type            zeroGradient;
    }
    second_to_first
    {
        type            calculated;
        value           uniform 0;
    }
    second_to_third
    {
        type            calculated;
        value           uniform 0;
    }
}


// ************************************************************************* //
