/*--------------------------------*- C++ -*----------------------------------*\
| =========                 |                                                 |
| \\      /  F ield         | OpenFOAM: The Open Source CFD Toolbox           |
|  \\    /   O peration     | Version:  3.0.1                                 |
|   \\  /    A nd           | Web:      www.OpenFOAM.org                      |
|    \\/     M anipulation  |                                                 |
\*---------------------------------------------------------------------------*/
FoamFile
{
    version     2.0;
    format      ascii;
    class       polyBoundaryMesh;
    location    "constant/fourth/polyMesh";
    object      boundary;
}
// * * * * * * * * * * * * * * * * * * * * * * * * * * * * * * * * * * * * * //

6
(
    minXfourth
    {
        type        empty;
        inGroups    1(empty);
        nFaces      800;
        startFace   1540;
    }
    maxXfourth
    {
        type        empty;
        inGroups    1(empty);
        nFaces      800;
        startFace   2340;
    }
    minZfourth
    {
        type        patch;
        nFaces      20;
        startFace   3140;
    }
    maxZfourth
    {
        type        patch;
        nFaces      20;
        startFace   3160;
    }
    fourth_to_fifth
    {
        type        mappedWall;
        inGroups    1(wall);
        sampleMode  nearestPatchFace;
        sampleRegion fifth;
        samplePatch fifth_to_fourth;
        nFaces      40;
        startFace   3180;
    }
    fourth_to_third
    {
        type        mappedWall;
        inGroups    1(wall);
        sampleMode  nearestPatchFace;
        sampleRegion third;
        samplePatch third_to_fourth;
        nFaces      40;
        startFace   3220;
    }
)

// ************************************************************************* //
