/*--------------------------------*- C++ -*----------------------------------*\
| =========                 |                                                 |
| \\      /  F ield         | OpenFOAM: The Open Source CFD Toolbox           |
|  \\    /   O peration     | Version:  3.0.1                                 |
|   \\  /    A nd           | Web:      www.OpenFOAM.org                      |
|    \\/     M anipulation  |                                                 |
\*---------------------------------------------------------------------------*/
FoamFile
{
    version     2.0;
    format      ascii;
    class       polyBoundaryMesh;
    location    "constant/third/polyMesh";
    object      boundary;
}
// * * * * * * * * * * * * * * * * * * * * * * * * * * * * * * * * * * * * * //

6
(
    minXthird
    {
        type        empty;
        inGroups    1(empty);
        nFaces      800;
        startFace   1540;
    }
    maxXthird
    {
        type        empty;
        inGroups    1(empty);
        nFaces      800;
        startFace   2340;
    }
    minZthird
    {
        type        patch;
        nFaces      20;
        startFace   3140;
    }
    maxZthird
    {
        type        patch;
        nFaces      20;
        startFace   3160;
    }
    third_to_fourth
    {
        type        mappedWall;
        inGroups    1(wall);
        sampleMode  nearestPatchFace;
        sampleRegion fourth;
        samplePatch fourth_to_third;
        nFaces      40;
        startFace   3180;
    }
    third_to_second
    {
        type        mappedWall;
        inGroups    1(wall);
        sampleMode  nearestPatchFace;
        sampleRegion second;
        samplePatch second_to_third;
        nFaces      40;
        startFace   3220;
    }
)

// ************************************************************************* //
