/*--------------------------------*- C++ -*----------------------------------*\
| =========                 |                                                 |
| \\      /  F ield         | OpenFOAM: The Open Source CFD Toolbox           |
|  \\    /   O peration     | Version:  3.0.1                                 |
|   \\  /    A nd           | Web:      www.OpenFOAM.org                      |
|    \\/     M anipulation  |                                                 |
\*---------------------------------------------------------------------------*/
FoamFile
{
    version     2.0;
    format      ascii;
    class       volScalarField;
    location    "0/first";
    object      T;
}
// * * * * * * * * * * * * * * * * * * * * * * * * * * * * * * * * * * * * * //

dimensions      [0 0 0 1 0 0 0];

internalField      uniform 300;

boundaryField
{

    minY
    {
        type            calculated;
        value           uniform 300;
    }
    minXfirst
    {
        type            empty;
    }
    maxXfirst
    {
        type            empty;
    }
    minZfirst
    {
        type            calculated;
        value           uniform 300;
    }
    maxZfirst
    {
        type            calculated;
        value           uniform 300;
    }
    first_to_second
    {
        type            calculated;
        value           uniform 300;
    }
}

// ************************************************************************* //
